  
       XFOIL         Version 6.99
  
 Calculated polar for: NACA 0012                                       
  
 1 1 Reynolds number fixed          Mach number fixed         
  
 xtrf =   1.000 (top)        1.000 (bottom)  
 Mach =   0.000     Re =     0.000 e 6     Ncrit =   9.000  9.000
  
   alpha    CL        CD       CDp       CM     Top_Xtr  Bot_Xtr  Top_Itr  Bot_Itr
  ------ -------- --------- --------- -------- -------- -------- -------- --------
  -4.000  -0.4831   0.00000  -0.00022   0.0057   0.0000   0.0000   0.0000   0.0000
  -2.000  -0.2417   0.00000  -0.00020   0.0028   0.0000   0.0000   0.0000   0.0000
   0.000  -0.0000   0.00000  -0.00020   0.0000   0.0000   0.0000   0.0000   0.0000
   2.000   0.2417   0.00000  -0.00020  -0.0028   0.0000   0.0000   0.0000   0.0000
   4.000   0.4831   0.00000  -0.00022  -0.0057   0.0000   0.0000   0.0000   0.0000
   6.000   0.7240   0.00000  -0.00025  -0.0085   0.0000   0.0000   0.0000   0.0000
   8.000   0.9639   0.00000  -0.00030  -0.0112   0.0000   0.0000   0.0000   0.0000
